[TITLE]
;;Project Title/Notes
;;Generated with the GisToSWMM5 program

[OPTIONS]
;Option Value
FLOW_UNITS   LPS
INFILTRATION   GREEN_AMPT
FLOW_ROUTING   DYNWAVE
LINK_OFFSETS   DEPTH
MIN_SLOPE   1
ALLOW_PONDING   YES
SKIP_STEADY_STATE   YES
IGNORE_QUALITY   YES
START_DATE   12/31/2004
START_TIME   0:00:00
REPORT_START_DATE   1/1/2005
REPORT_START_TIME   0:00:00
END_DATE   1/2/2005
END_TIME   23:55:00
SWEEP_START   1-Jan
SWEEP_END   2-Jan
DRY_DAYS   0
REPORT_STEP   0:15:00
WET_STEP   0:01:00
DRY_STEP   1:00:00
ROUTING_STEP   0:01:00
RULE_STEP   0:00:00
INERTIAL_DAMPING   PARTIAL
NORMAL_FLOW_LIMITED   BOTH
FORCE_MAIN_EQUATION   H-W
VARIABLE_STEP   0.75
LENGTHENING_STEP   0
MIN_SURFAREA   1.14
MAX_TRIALS   8
HEAD_TOLERANCE   0.0015
SYS_FLOW_TOL   5
LAT_FLOW_TOL   5
MINIMUM_STEP   0.5
THREADS   4

[EVAPORATION]
;;Evap Data      Parameters
;;-------------- ----------------
TEMPERATURE    
DRY_ONLY   YES

[TEMPERATURE]
;;Temp/Wind/Snow   Source/Data
FILE   G:\GisToSWMM5-master\demo_catchment\data.climate.DAT                                    
WINDSPEED   FILE                                    
SNOWMELT   0.952966   0.45   0.66   15.1   60.243222   0                
ADC IMPERVIOUS   1   1   1   1   1   1   1   1   1   1
ADC PERVIOUS   0.1   0.35   0.35   0.66   0.75   0.82   0.87   0.92   0.95   0.98

[RAINGAGES]
;;Gage           Format    Interval SCF      Source
;;-------------- --------- ------ ------ ----------
LO   VOLUME   0:05   1   FILE   G:\GisToSWMM5-master\demo_catchment\data.prec_mm.DAT   LO   MM

[SUBCATCHMENTS]
;;Subcatchment   Rain Gage        Outlet           Area     %Imperv  Width    %Slope   CurbLen  Snow Pack       
;;-------------- ---------------- ---------------- -------- -------- -------- -------- -------- ----------------
;10
s1   LO   17G92   0.01890   100   9.62   5.0000   1.00   SP1   
;10
s2   LO   17G86   0.00330   100   4.02   5.0000   1.00   SP1   
;10
s3   LO   17G86   0.01220   100   7.73   5.0000   1.00   SP1   
;10
s4   LO   17G86   0.01280   100   7.92   5.0000   1.00   SP1   
;10
s5   LO   17G94   0.00600   100   5.42   5.0000   1.00   SP1   
;10
s6   LO   17G94   0.19560   100   30.96   5.0000   1.00   SP1   
;10
s7   LO   17G94   0.20580   100   31.76   5.0000   1.00   SP1   
;10
s8   LO   17G94   0.00590   100   5.38   5.0000   1.00   SP1   
;10
s9   LO   17G94   0.06930   100   18.43   5.0000   1.00   SP1   
;10
s10   LO   17G94   0.08840   100   20.81   5.0000   1.00   SP1   
;10
s11   LO   17G94   0.01270   100   7.89   5.0000   1.00   SP1   
;10
s12   LO   17G94   0.02240   100   10.48   5.0000   1.00   SP1   
;10
s13   LO   17G94   0.04240   100   14.41   5.0000   1.00   SP1   
;10
s14   LO   17G94   0.09270   100   21.31   5.0000   1.00   SP1   
;10
s15   LO   17G94   0.07500   100   19.17   5.0000   1.00   SP1   
;10
s16   LO   17G94   0.00070   100   1.85   5.0000   1.00   SP1   
;10
s17   LO   17G93   0.01360   100   8.16   5.0000   1.00   SP1   
;10
s18   LO   17G90   0.07960   100   19.75   5.0000   1.00   SP1   
;10
s19   LO   17B16   0.67550   100   57.53   5.0000   1.00   SP1   
;10
s20   LO   17B16   0.00660   100   5.69   5.0000   1.00   SP1   
;10
s21   LO   17B16   0.00060   100   1.71   5.0000   1.00   SP1   
;10
s22   LO   17B16   0.00080   100   1.98   5.0000   1.00   SP1   
;10
s23   LO   17B16   0.00800   100   6.26   5.0000   1.00   SP1   
;10
s24   LO   17B16   0.00320   100   3.96   5.0000   1.00   SP1   
;10
s25   LO   17B16   0.00480   100   4.85   5.0000   1.00   SP1   
;10
s26   LO   17B16   0.00270   100   3.64   5.0000   1.00   SP1   
;10
s27   LO   17B16   0.02250   100   10.50   5.0000   1.00   SP1   
;10
s28   LO   17B16   0.00730   100   5.98   5.0000   1.00   SP1   
;10
s29   LO   17B16   0.02390   100   10.82   5.0000   1.00   SP1   
;10
s30   LO   17B16   0.00560   100   5.24   5.0000   1.00   SP1   
;10
s31   LO   17B16   0.00010   100   0.70   5.0000   1.00   SP1   
;10
s32   LO   16W24   0.00360   100   4.20   5.0000   1.00   SP1   
;10
s33   LO   16W25   0.01560   100   8.74   5.0000   1.00   SP1   
;10
s34   LO   16W25   0.01210   100   7.70   5.0000   1.00   SP1   
;10
s35   LO   16W25   0.04300   100   14.52   5.0000   1.00   SP1   
;10
s36   LO   16W25   0.00570   100   5.28   5.0000   1.00   SP1   
;10
s37   LO   16W25   0.00370   100   4.26   5.0000   1.00   SP1   
;10
s38   LO   16W20   0.00290   100   3.77   5.0000   1.00   SP1   
;10
s39   LO   16W20   0.00530   100   5.10   5.0000   1.00   SP1   
;10
s40   LO   16W20   0.00940   100   6.79   5.0000   1.00   SP1   
;10
s41   LO   16W7   0.00350   100   4.14   5.0000   1.00   SP1   
;10
s42   LO   16W7   0.00390   100   4.37   5.0000   1.00   SP1   
;10
s43   LO   16W7   0.00350   100   4.14   5.0000   1.00   SP1   
;10
s44   LO   16W7   0.01000   100   7.00   5.0000   1.00   SP1   
;10
s45   LO   16W7   0.00410   100   4.48   5.0000   1.00   SP1   
;10
s46   LO   16W7   0.00320   100   3.96   5.0000   1.00   SP1   
;10
s47   LO   16W7   0.00700   100   5.86   5.0000   1.00   SP1   
;10
s48   LO   16W7   0.00360   100   4.20   5.0000   1.00   SP1   
;10
s49   LO   16W7   0.00370   100   4.26   5.0000   1.00   SP1   
;10
s50   LO   16W7   0.00010   100   0.70   5.0000   1.00   SP1   
;10
s51   LO   16W7   0.00380   100   4.32   5.0000   1.00   SP1   
;10
s52   LO   16W7   0.00350   100   4.14   5.0000   1.00   SP1   
;10
s53   LO   16W7   0.00400   100   4.43   5.0000   1.00   SP1   
;10
s54   LO   16W7   0.00230   100   3.36   5.0000   1.00   SP1   
;10
s55   LO   16W7   0.00360   100   4.20   5.0000   1.00   SP1   
;10
s56   LO   16W7   0.00600   100   5.42   5.0000   1.00   SP1   
;10
s57   LO   16W7   0.00400   100   4.43   5.0000   1.00   SP1   
;10
s58   LO   16W7   0.00350   100   4.14   5.0000   1.00   SP1   
;10
s59   LO   16W7   0.00370   100   4.26   5.0000   1.00   SP1   
;10
s60   LO   16W7   0.00360   100   4.20   5.0000   1.00   SP1   
;10
s61   LO   16W7   0.00350   100   4.14   5.0000   1.00   SP1   
;10
s62   LO   16W7   0.00350   100   4.14   5.0000   1.00   SP1   
;10
s63   LO   16W7   0.00220   100   3.28   5.0000   1.00   SP1   
;10
s64   LO   16W7   0.00370   100   4.26   5.0000   1.00   SP1   
;10
s65   LO   16W7   0.00360   100   4.20   5.0000   1.00   SP1   
;10
s66   LO   16W7   0.11170   100   23.40   5.0000   1.00   SP1   
;10
s67   LO   16W7   0.00340   100   4.08   5.0000   1.00   SP1   
;10
s68   LO   16W7   0.00350   100   4.14   5.0000   1.00   SP1   
;10
s69   LO   16W7   0.01230   100   7.76   5.0000   1.00   SP1   
;10
s70   LO   16W7   0.06680   100   18.09   5.0000   1.00   SP1   
;10
s71   LO   16W7   0.04010   100   14.02   5.0000   1.00   SP1   
;10
s72   LO   16W41   0.06010   100   17.16   5.0000   1.00   SP1   
;10
s73   LO   16W41   0.03250   100   12.62   5.0000   1.00   SP1   
;10
s74   LO   16W41   0.00250   100   3.50   5.0000   1.00   SP1   
;10
s75   LO   16W41   0.00530   100   5.10   5.0000   1.00   SP1   
;10
s76   LO   16W41   0.00350   100   4.14   5.0000   1.00   SP1   
;10
s77   LO   16W41   0.00260   100   3.57   5.0000   1.00   SP1   
;10
s78   LO   16W41   0.00200   100   3.13   5.0000   1.00   SP1   
;10
s79   LO   16W41   0.00130   100   2.52   5.0000   1.00   SP1   
;10
s80   LO   16W41   0.02110   100   10.17   5.0000   1.00   SP1   
;10
s81   LO   16W41   0.00360   100   4.20   5.0000   1.00   SP1   
;10
s82   LO   16W41   0.00060   100   1.71   5.0000   1.00   SP1   
;10
s83   LO   16W41   0.00270   100   3.64   5.0000   1.00   SP1   
;10
s84   LO   16W39   0.03530   100   13.15   5.0000   1.00   SP1   
;10
s85   LO   16W39   0.00350   100   4.14   5.0000   1.00   SP1   
;10
s86   LO   16W39   0.00110   100   2.32   5.0000   1.00   SP1   
;10
s87   LO   16W39   0.00360   100   4.20   5.0000   1.00   SP1   
;10
s88   LO   16W40   0.03890   100   13.81   5.0000   1.00   SP1   
;10
s89   LO   16W40   0.03250   100   12.62   5.0000   1.00   SP1   
;10
s90   LO   16W40   0.02440   100   10.93   5.0000   1.00   SP1   
;10
s91   LO   16W40   0.00110   100   2.32   5.0000   1.00   SP1   
;10
s92   LO   16W40   0.00360   100   4.20   5.0000   1.00   SP1   
;10
s93   LO   16W40   0.00010   100   0.70   5.0000   1.00   SP1   
;10
s94   LO   16W40   0.00240   100   3.43   5.0000   1.00   SP1   
;10
s95   LO   16W26   0.03220   100   12.56   5.0000   1.00   SP1   
;10
s96   LO   16W26   0.03950   100   13.91   5.0000   1.00   SP1   
;10
s97   LO   16W26   0.01020   100   7.07   5.0000   1.00   SP1   
;10
s98   LO   16W26   0.00190   100   3.05   5.0000   1.00   SP1   
;10
s99   LO   16W26   0.00580   100   5.33   5.0000   1.00   SP1   
;10
s100   LO   16W26   0.00600   100   5.42   5.0000   1.00   SP1   
;10
s101   LO   16W26   0.00350   100   4.14   5.0000   1.00   SP1   
;10
s102   LO   16W26   0.00350   100   4.14   5.0000   1.00   SP1   
;10
s103   LO   16W26   0.00670   100   5.73   5.0000   1.00   SP1   
;10
s104   LO   16W26   0.00410   100   4.48   5.0000   1.00   SP1   
;10
s105   LO   16W26   0.00350   100   4.14   5.0000   1.00   SP1   
;10
s106   LO   16W26   0.03750   100   13.56   5.0000   1.00   SP1   
;10
s107   LO   16W26   0.00980   100   6.93   5.0000   1.00   SP1   
;10
s108   LO   16W42   0.02110   100   10.17   5.0000   1.00   SP1   
;10
s109   LO   16W42   0.00320   100   3.96   5.0000   1.00   SP1   
;10
s110   LO   16W42   0.00150   100   2.71   5.0000   1.00   SP1   
;10
s111   LO   16W42   0.00350   100   4.14   5.0000   1.00   SP1   
;10
s112   LO   16W42   0.01020   100   7.07   5.0000   1.00   SP1   
;10
s113   LO   16W42   0.00440   100   4.64   5.0000   1.00   SP1   
;10
s114   LO   16W42   0.00360   100   4.20   5.0000   1.00   SP1   
;10
s115   LO   16W42   0.01000   100   7.00   5.0000   1.00   SP1   
;10
s116   LO   16W42   0.00320   100   3.96   5.0000   1.00   SP1   
;10
s117   LO   16W42   0.00340   100   4.08   5.0000   1.00   SP1   
;10
s118   LO   16W42   0.00360   100   4.20   5.0000   1.00   SP1   
;10
s119   LO   16W42   0.00090   100   2.10   5.0000   1.00   SP1   
;10
s120   LO   16W42   0.00320   100   3.96   5.0000   1.00   SP1   
;10
s121   LO   16W42   0.00350   100   4.14   5.0000   1.00   SP1   
;10
s122   LO   16W42   0.00130   100   2.52   5.0000   1.00   SP1   
;10
s123   LO   16W42   0.00340   100   4.08   5.0000   1.00   SP1   
;10
s124   LO   16W21   0.00110   100   2.32   5.0000   1.00   SP1   
;10
s125   LO   16W21   0.00580   100   5.33   5.0000   1.00   SP1   
;10
s126   LO   16W21   0.00860   100   6.49   5.0000   1.00   SP1   
;10
s127   LO   16W21   0.00480   100   4.85   5.0000   1.00   SP1   
;10
s128   LO   16W21   0.00770   100   6.14   5.0000   1.00   SP1   
;10
s129   LO   16W21   0.02080   100   10.10   5.0000   1.00   SP1   
;10
s130   LO   16W8   0.01000   100   7.00   5.0000   1.00   SP1   
;10
s131   LO   16W8   0.00500   100   4.95   5.0000   1.00   SP1   
;10
s132   LO   16W8   0.00430   100   4.59   5.0000   1.00   SP1   
;10
s133   LO   16W8   0.00290   100   3.77   5.0000   1.00   SP1   
;10
s134   LO   16W8   0.00020   100   0.99   5.0000   1.00   SP1   
;10
s135   LO   16W23   0.00300   100   3.83   5.0000   1.00   SP1   
;10
s136   LO   16W19   0.00280   100   3.70   5.0000   1.00   SP1   
;10
s137   LO   16W19   0.01070   100   7.24   5.0000   1.00   SP1   
;10
s138   LO   16W19   0.00400   100   4.43   5.0000   1.00   SP1   
;10
s139   LO   16W22   0.02150   100   10.26   5.0000   1.00   SP1   
;10
s140   LO   16W22   0.01120   100   7.41   5.0000   1.00   SP1   
;10
s141   LO   16W22   0.01520   100   8.63   5.0000   1.00   SP1   
;10
s142   LO   16W22   0.00700   100   5.86   5.0000   1.00   SP1   
;10
s143   LO   16W22   0.00780   100   6.18   5.0000   1.00   SP1   
;10
s144   LO   16W22   0.00150   100   2.71   5.0000   1.00   SP1   
;10
s145   LO   16W22   0.00310   100   3.90   5.0000   1.00   SP1   
;10
s146   LO   17B15   0.55720   100   52.25   5.0000   1.00   SP1   
;10
s147   LO   17B15   0.00530   100   5.10   5.0000   1.00   SP1   
;10
s148   LO   17B15   0.00260   100   3.57   5.0000   1.00   SP1   
;10
s149   LO   17B15   0.13290   100   25.52   5.0000   1.00   SP1   
;10
s150   LO   17B15   0.00260   100   3.57   5.0000   1.00   SP1   
;10
s151   LO   17B15   0.00690   100   5.81   5.0000   1.00   SP1   
;10
s152   LO   17B15   0.01240   100   7.79   5.0000   1.00   SP1   
;10
s153   LO   17B14   0.40550   100   44.58   5.0000   1.00   SP1   
;10
s154   LO   17B14   0.03360   100   12.83   5.0000   1.00   SP1   
;10
s155   LO   17B14   0.01640   100   8.96   5.0000   1.00   SP1   
;10
s156   LO   17B14   0.00230   100   3.36   5.0000   1.00   SP1   
;10
s157   LO   17B14   0.00500   100   4.95   5.0000   1.00   SP1   
;10
s158   LO   17H105   0.00740   100   6.02   5.0000   1.00   SP1   
;10
s159   LO   17H105   0.00060   100   1.71   5.0000   1.00   SP1   
;10
s160   LO   17H105   0.04150   100   14.26   5.0000   1.00   SP1   
;10
s161   LO   17H105   0.02610   100   11.31   5.0000   1.00   SP1   
;10
s162   LO   17H3   0.00220   100   3.28   5.0000   1.00   SP1   
;10
s163   LO   17G14   0.01200   100   7.67   5.0000   1.00   SP1   
;10
s164   LO   17G14   0.03500   100   13.10   5.0000   1.00   SP1   
;10
s165   LO   17H116   0.05280   100   16.08   5.0000   1.00   SP1   
;10
s166   LO   17H30   0.00140   100   2.62   5.0000   1.00   SP1   
;10
s167   LO   17H136   0.07140   100   18.70   5.0000   1.00   SP1   
;10
s168   LO   17H136   0.02010   100   9.92   5.0000   1.00   SP1   
;10
s169   LO   17H136   0.00410   100   4.48   5.0000   1.00   SP1   
;10
s170   LO   17H140   0.00250   100   3.50   5.0000   1.00   SP1   
;10
s171   LO   17H140   0.01060   100   7.21   5.0000   1.00   SP1   
;10
s172   LO   17H140   0.00190   100   3.05   5.0000   1.00   SP1   
;10
s173   LO   17H140   0.00130   100   2.52   5.0000   1.00   SP1   
;10
s174   LO   17H101   0.00280   100   3.70   5.0000   1.00   SP1   
;10
s175   LO   17H101   0.23120   100   33.66   5.0000   1.00   SP1   
;10
s176   LO   17H101   0.00200   100   3.13   5.0000   1.00   SP1   
;10
s177   LO   17H25   0.00320   100   3.96   5.0000   1.00   SP1   
;10
s178   LO   17H25   0.00380   100   4.32   5.0000   1.00   SP1   
;10
s179   LO   17H104   0.06040   100   17.20   5.0000   1.00   SP1   
;10
s180   LO   17H104   0.01280   100   7.92   5.0000   1.00   SP1   
;10
s181   LO   17H104   0.00240   100   3.43   5.0000   1.00   SP1   
;10
s182   LO   17H7   0.04000   100   14.00   5.0000   1.00   SP1   
;10
s183   LO   17H123   0.01130   100   7.44   5.0000   1.00   SP1   
;10
s184   LO   17H147   0.00730   100   5.98   5.0000   1.00   SP1   
;10
s185   LO   17H29   0.02530   100   11.13   5.0000   1.00   SP1   
;10
s186   LO   17H6   0.04220   100   14.38   5.0000   1.00   SP1   
;10
s187   LO   17H109   0.01470   100   8.49   5.0000   1.00   SP1   
;10
s188   LO   17H113   0.02830   100   11.78   5.0000   1.00   SP1   
;10
s189   LO   17H120   0.02710   100   11.52   5.0000   1.00   SP1   
;10
s190   LO   17H120   0.00550   100   5.19   5.0000   1.00   SP1   
;10
s191   LO   17H1   0.00710   100   5.90   5.0000   1.00   SP1   
;10
s192   LO   17H1   0.01330   100   8.07   5.0000   1.00   SP1   
;10
s193   LO   17H114   0.02980   100   12.08   5.0000   1.00   SP1   
;10
s194   LO   17H114   0.01400   100   8.28   5.0000   1.00   SP1   
;10
s195   LO   17H114   0.01410   100   8.31   5.0000   1.00   SP1   
;10
s196   LO   17H114   0.00570   100   5.28   5.0000   1.00   SP1   
;10
s197   LO   17H8   0.00900   100   6.64   5.0000   1.00   SP1   
;10
s198   LO   17H10   0.01440   100   8.40   5.0000   1.00   SP1   
;10
s199   LO   17H110   0.02210   100   10.41   5.0000   1.00   SP1   
;10
s200   LO   17H110   0.00790   100   6.22   5.0000   1.00   SP1   
;10
s201   LO   17H110   0.01430   100   8.37   5.0000   1.00   SP1   
;10
s202   LO   17H9   0.02850   100   11.82   5.0000   1.00   SP1   
;10
s203   LO   17H5   0.03860   100   13.75   5.0000   1.00   SP1   
;10
s204   LO   17H16   0.03830   100   13.70   5.0000   1.00   SP1   
;10
s205   LO   17H4   0.04210   100   14.36   5.0000   1.00   SP1   
;10
s206   LO   17H4   0.00520   100   5.05   5.0000   1.00   SP1   
;10
s207   LO   17H117   0.06190   100   17.42   5.0000   1.00   SP1   
;10
s208   LO   17H28   0.03400   100   12.91   5.0000   1.00   SP1   
;10
s209   LO   17H28   0.00020   100   0.99   5.0000   1.00   SP1   
;10
s210   LO   17H115   0.01720   100   9.18   5.0000   1.00   SP1   
;10
s211   LO   17H115   0.01080   100   7.27   5.0000   1.00   SP1   
;10
s212   LO   17H115   0.02440   100   10.93   5.0000   1.00   SP1   
;10
s213   LO   17H115   0.01990   100   9.87   5.0000   1.00   SP1   
;10
s214   LO   17H115   0.02580   100   11.24   5.0000   1.00   SP1   
;10
s215   LO   17H115   0.02470   100   11.00   5.0000   1.00   SP1   
;10
s216   LO   17H115   0.02550   100   11.18   5.0000   1.00   SP1   
;10
s217   LO   17H115   0.01170   100   7.57   5.0000   1.00   SP1   
;10
s218   LO   17H115   0.00510   100   5.00   5.0000   1.00   SP1   
;10
s219   LO   17G89   0.50880   100   49.93   5.0000   1.00   SP1   
;10
s220   LO   17G89   0.26170   100   35.81   5.0000   1.00   SP1   
;10
s221   LO   17G89   0.00590   100   5.38   5.0000   1.00   SP1   
;10
s222   LO   17C67   0.02780   100   11.67   5.0000   1.00   SP1   
;10
s223   LO   17C67   0.01870   100   9.57   5.0000   1.00   SP1   
;10
s224   LO   17C67   0.02190   100   10.36   5.0000   1.00   SP1   
;10
s225   LO   17C67   0.02350   100   10.73   5.0000   1.00   SP1   
;10
s226   LO   17H122   0.03260   100   12.64   5.0000   1.00   SP1   
;10
s227   LO   17C70   0.01710   100   9.15   5.0000   1.00   SP1   
;10
s228   LO   17C70   0.01210   100   7.70   5.0000   1.00   SP1   
;10
s229   LO   17C70   0.02470   100   11.00   5.0000   1.00   SP1   
;10
s230   LO   17C70   0.00330   100   4.02   5.0000   1.00   SP1   
;10
s231   LO   17C70   0.00470   100   4.80   5.0000   1.00   SP1   
;10
s232   LO   17C182   0.01780   100   9.34   5.0000   1.00   SP1   
;10
s233   LO   17C182   0.06290   100   17.56   5.0000   1.00   SP1   
;10
s234   LO   17C182   0.00380   100   4.32   5.0000   1.00   SP1   
;10
s235   LO   17C182   0.00350   100   4.14   5.0000   1.00   SP1   
;10
s236   LO   17C182   0.00270   100   3.64   5.0000   1.00   SP1   
;10
s237   LO   17C68   0.00680   100   5.77   5.0000   1.00   SP1   
;10
s238   LO   17C68   0.00230   100   3.36   5.0000   1.00   SP1   
;10
s239   LO   17C68   0.01170   100   7.57   5.0000   1.00   SP1   
;10
s240   LO   17C68   0.00060   100   1.71   5.0000   1.00   SP1   
;10
s241   LO   17C68   0.01730   100   9.21   5.0000   1.00   SP1   
;10
s242   LO   17G65   0.11130   100   23.35   5.0000   1.00   SP1   
;10
s243   LO   17G65   0.00420   100   4.54   5.0000   1.00   SP1   
;10
s244   LO   17G65   0.00280   100   3.70   5.0000   1.00   SP1   
;10
s245   LO   17C66   0.02000   100   9.90   5.0000   1.00   SP1   
;10
s246   LO   17C66   0.03160   100   12.44   5.0000   1.00   SP1   
;10
s247   LO   17C66   0.00030   100   1.21   5.0000   1.00   SP1   
;10
s248   LO   17C66   0.00740   100   6.02   5.0000   1.00   SP1   
;10
s249   LO   17C66   0.00690   100   5.81   5.0000   1.00   SP1   
;10
s250   LO   17C66   0.00150   100   2.71   5.0000   1.00   SP1   
;10
s251   LO   17C66   0.05400   100   16.27   5.0000   1.00   SP1   
;10
s252   LO   17C66   0.00450   100   4.70   5.0000   1.00   SP1   
;10
s253   LO   17C66   0.00350   100   4.14   5.0000   1.00   SP1   
;10
s254   LO   17C66   0.00360   100   4.20   5.0000   1.00   SP1   
;10
s255   LO   17C66   0.00060   100   1.71   5.0000   1.00   SP1   
;10
s256   LO   17C66   0.00770   100   6.14   5.0000   1.00   SP1   
;10
s257   LO   17C54   0.03760   100   13.57   5.0000   1.00   SP1   
;10
s258   LO   17C54   0.00060   100   1.71   5.0000   1.00   SP1   
;10
s259   LO   17C54   0.01660   100   9.02   5.0000   1.00   SP1   
;10
s260   LO   17C52   0.02400   100   10.84   5.0000   1.00   SP1   
;10
s261   LO   17C52   0.01800   100   9.39   5.0000   1.00   SP1   
;10
s262   LO   17C52   0.00450   100   4.70   5.0000   1.00   SP1   
;10
s263   LO   17C52   0.03510   100   13.11   5.0000   1.00   SP1   
;10
s264   LO   17C52   0.00150   100   2.71   5.0000   1.00   SP1   
;10
s265   LO   17C52   0.00010   100   0.70   5.0000   1.00   SP1   
;10
s266   LO   17G84   0.00680   100   5.77   5.0000   1.00   SP1   
;10
s267   LO   17G84   0.00500   100   4.95   5.0000   1.00   SP1   
;10
s268   LO   17C51   0.01990   100   9.87   5.0000   1.00   SP1   
;10
s269   LO   17C51   0.01180   100   7.60   5.0000   1.00   SP1   
;10
s270   LO   17C51   0.06770   100   18.21   5.0000   1.00   SP1   
;10
s271   LO   17C69   0.01350   100   8.13   5.0000   1.00   SP1   
;10
s272   LO   17C69   0.01810   100   9.42   5.0000   1.00   SP1   
;10
s273   LO   17C69   0.02440   100   10.93   5.0000   1.00   SP1   
;10
s274   LO   17C69   0.00790   100   6.22   5.0000   1.00   SP1   
;10
s275   LO   17C69   0.00550   100   5.19   5.0000   1.00   SP1   
;10
s276   LO   17C69   0.00710   100   5.90   5.0000   1.00   SP1   
;10
s277   LO   17H129   0.06310   100   17.58   5.0000   1.00   SP1   
;10
s278   LO   17H129   0.05790   100   16.84   5.0000   1.00   SP1   
;10
s279   LO   17H129   0.01570   100   8.77   5.0000   1.00   SP1   
;10
s280   LO   17H87   0.02090   100   10.12   5.0000   1.00   SP1   
;10
s281   LO   17H87   0.00320   100   3.96   5.0000   1.00   SP1   
;10
s282   LO   17B33   0.03860   100   13.75   5.0000   1.00   SP1   
;10
s283   LO   17H119   0.03500   100   13.10   5.0000   1.00   SP1   
;10
s284   LO   17C50   0.00360   100   4.20   5.0000   1.00   SP1   
;10
s285   LO   17C50   0.01000   100   7.00   5.0000   1.00   SP1   
;10
s286   LO   17C50   0.01460   100   8.46   5.0000   1.00   SP1   
;10
s287   LO   17B2   0.02420   100   10.89   5.0000   1.00   SP1   
;10
s288   LO   17B2   0.18960   100   30.48   5.0000   1.00   SP1   
;10
s289   LO   17B2   0.00560   100   5.24   5.0000   1.00   SP1   
;10
s290   LO   17H27   0.02090   100   10.12   5.0000   1.00   SP1   
;10
s291   LO   17H27   0.00890   100   6.60   5.0000   1.00   SP1   
;10
s292   LO   17C55   0.05720   100   16.74   5.0000   1.00   SP1   
;10
s293   LO   17C55   0.02320   100   10.66   5.0000   1.00   SP1   
;10
s294   LO   17C55   0.01760   100   9.29   5.0000   1.00   SP1   
;10
s295   LO   17C55   0.01330   100   8.07   5.0000   1.00   SP1   
;10
s296   LO   17C55   0.00360   100   4.20   5.0000   1.00   SP1   
;10
s297   LO   17H98   0.03130   100   12.38   5.0000   1.00   SP1   
;10
s298   LO   17H98   0.07550   100   19.23   5.0000   1.00   SP1   
;10
s299   LO   17H98   0.00770   100   6.14   5.0000   1.00   SP1   
;10
s300   LO   17H98   0.00930   100   6.75   5.0000   1.00   SP1   
;10
s301   LO   17H98   0.04490   100   14.83   5.0000   1.00   SP1   
;10
s302   LO   17H98   0.01150   100   7.51   5.0000   1.00   SP1   
;10
s303   LO   17H98   0.01560   100   8.74   5.0000   1.00   SP1   
;10
s304   LO   17H108   0.01340   100   8.10   5.0000   1.00   SP1   
;10
s305   LO   17H108   0.00100   100   2.21   5.0000   1.00   SP1   
;10
s306   LO   17H100   0.00010   100   0.70   5.0000   1.00   SP1   
;10
s307   LO   17H100   0.00030   100   1.21   5.0000   1.00   SP1   
;10
s308   LO   17H100   0.00120   100   2.42   5.0000   1.00   SP1   
;10
s309   LO   17H100   0.00880   100   6.57   5.0000   1.00   SP1   
;10
s310   LO   17H100   0.00980   100   6.93   5.0000   1.00   SP1   
;10
s311   LO   17H100   0.04240   100   14.41   5.0000   1.00   SP1   
;10
s312   LO   17H100   0.00650   100   5.64   5.0000   1.00   SP1   
;10
s313   LO   17H2   0.00390   100   4.37   5.0000   1.00   SP1   
;10
s314   LO   17H96   0.00130   100   2.52   5.0000   1.00   SP1   
;10
s315   LO   17H96   0.01320   100   8.04   5.0000   1.00   SP1   
;10
s316   LO   17H96   0.01250   100   7.83   5.0000   1.00   SP1   
;10
s317   LO   17H96   0.01260   100   7.86   5.0000   1.00   SP1   
;10
s318   LO   17H96   0.03530   100   13.15   5.0000   1.00   SP1   
;10
s319   LO   17H96   0.01360   100   8.16   5.0000   1.00   SP1   
;10
s320   LO   17H96   0.02450   100   10.96   5.0000   1.00   SP1   
;10
s321   LO   17H138   0.02000   100   9.90   5.0000   1.00   SP1   
;10
s322   LO   17H138   0.01940   100   9.75   5.0000   1.00   SP1   
;10
s323   LO   17H138   0.00390   100   4.37   5.0000   1.00   SP1   
;10
s324   LO   17H138   0.03000   100   12.12   5.0000   1.00   SP1   
;10
s325   LO   17H111   0.02870   100   11.86   5.0000   1.00   SP1   
;10
s326   LO   17H111   0.00340   100   4.08   5.0000   1.00   SP1   
;10
s327   LO   17H137   0.05710   100   16.73   5.0000   1.00   SP1   
;10
s328   LO   17H137   0.02120   100   10.19   5.0000   1.00   SP1   
;10
s329   LO   17H137   0.01810   100   9.42   5.0000   1.00   SP1   
;10
s330   LO   17H99   0.00560   100   5.24   5.0000   1.00   SP1   
;10
s331   LO   17H99   0.02580   100   11.24   5.0000   1.00   SP1   
;10
s332   LO   17H99   0.00410   100   4.48   5.0000   1.00   SP1   
;10
s333   LO   17H134   0.07340   100   18.96   5.0000   1.00   SP1   
;10
s334   LO   17H134   0.06600   100   17.98   5.0000   1.00   SP1   
;10
s335   LO   17H112   0.01960   100   9.80   5.0000   1.00   SP1   
;10
s336   LO   17H112   0.01040   100   7.14   5.0000   1.00   SP1   
;10
s337   LO   17H133   0.00340   100   4.08   5.0000   1.00   SP1   
;10
s338   LO   17H133   0.26420   100   35.98   5.0000   1.00   SP1   
;10
s339   LO   17H133   0.00450   100   4.70   5.0000   1.00   SP1   
;10
s340   LO   17H133   0.00010   100   0.70   5.0000   1.00   SP1   
;10
s341   LO   17H102   0.04070   100   14.12   5.0000   1.00   SP1   
;10
s342   LO   17H102   0.13850   100   26.05   5.0000   1.00   SP1   
;10
s343   LO   17H102   0.02180   100   10.34   5.0000   1.00   SP1   
;10
s344   LO   17H102   0.03580   100   13.24   5.0000   1.00   SP1   
;10
s345   LO   17H102   0.01990   100   9.87   5.0000   1.00   SP1   
;10
s346   LO   17H102   0.00010   100   0.70   5.0000   1.00   SP1   
;10
s347   LO   17H139   0.02930   100   11.98   5.0000   1.00   SP1   
;10
s348   LO   17H135   0.06210   100   17.44   5.0000   1.00   SP1   
;10
s349   LO   17H135   0.09830   100   21.95   5.0000   1.00   SP1   
;10
s350   LO   17H135   0.00980   100   6.93   5.0000   1.00   SP1   
;10
s351   LO   17H135   0.01610   100   8.88   5.0000   1.00   SP1   
;10
s352   LO   17H135   0.01120   100   7.41   5.0000   1.00   SP1   
;10
s353   LO   17H103   0.00040   100   1.40   5.0000   1.00   SP1   
;10
s354   LO   17H103   0.08700   100   20.65   5.0000   1.00   SP1   
;10
s355   LO   17H103   0.05320   100   16.15   5.0000   1.00   SP1   
;10
s356   LO   17H103   0.08790   100   20.75   5.0000   1.00   SP1   
;10
s357   LO   17H103   0.01040   100   7.14   5.0000   1.00   SP1   
;10
s358   LO   17H126   0.02770   100   11.65   5.0000   1.00   SP1   
;10
s359   LO   17H125   0.02290   100   10.59   5.0000   1.00   SP1   
;10
s360   LO   17H125   0.00040   100   1.40   5.0000   1.00   SP1   
;10
s361   LO   17H125   0.07110   100   18.67   5.0000   1.00   SP1   
;10
s362   LO   17H88   0.02660   100   11.42   5.0000   1.00   SP1   
;10
s363   LO   17H88   0.00020   100   0.99   5.0000   1.00   SP1   
;10
s364   LO   17H118   0.02030   100   9.97   5.0000   1.00   SP1   
;10
s365   LO   17H118   0.00030   100   1.21   5.0000   1.00   SP1   
;10
s366   LO   17H64   0.12100   100   24.35   5.0000   1.00   SP1   
;10
s367   LO   17H124   0.03100   100   12.32   5.0000   1.00   SP1   
;10
s368   LO   17H124   0.00430   100   4.59   5.0000   1.00   SP1   
;10
s369   LO   17H124   0.00620   100   5.51   5.0000   1.00   SP1   
;10
s370   LO   17H131   0.02530   100   11.13   5.0000   1.00   SP1   
;10
s371   LO   17H131   0.02040   100   10.00   5.0000   1.00   SP1   
;10
s372   LO   17H131   0.03440   100   12.98   5.0000   1.00   SP1   
;10
s373   LO   17H131   0.08450   100   20.35   5.0000   1.00   SP1   
;10
s374   LO   17H131   0.04010   100   14.02   5.0000   1.00   SP1   
;10
s375   LO   17H131   0.00220   100   3.28   5.0000   1.00   SP1   
;10
s376   LO   17C82   0.06170   100   17.39   5.0000   1.00   SP1   
;10
s377   LO   17C82   0.06100   100   17.29   5.0000   1.00   SP1   
;10
s378   LO   17H11   0.01780   100   9.34   5.0000   1.00   SP1   
;10
s379   LO   17H94   0.02860   100   11.84   5.0000   1.00   SP1   
;10
s380   LO   17H14   0.01810   100   9.42   5.0000   1.00   SP1   
;10
s381   LO   17H91   0.02610   100   11.31   5.0000   1.00   SP1   
;10
s382   LO   17H91   0.00800   100   6.26   5.0000   1.00   SP1   
;10
s383   LO   17H89   0.03350   100   12.81   5.0000   1.00   SP1   
;10
s384   LO   17H93   0.03680   100   13.43   5.0000   1.00   SP1   
;10
s385   LO   17H90   0.03930   100   13.88   5.0000   1.00   SP1   
;10
s386   LO   17C71   0.03020   100   12.16   5.0000   1.00   SP1   
;10
s387   LO   17H92   0.00880   100   6.57   5.0000   1.00   SP1   
;10
s388   LO   17H92   0.00040   100   1.40   5.0000   1.00   SP1   
;10
s389   LO   17H15   0.02450   100   10.96   5.0000   1.00   SP1   
;10
s390   LO   17C72   0.01010   100   7.03   5.0000   1.00   SP1   
;10
s391   LO   17C72   0.00710   100   5.90   5.0000   1.00   SP1   
;10
s392   LO   17C72   0.04770   100   15.29   5.0000   1.00   SP1   
;10
s393   LO   17B8   0.31350   100   39.19   5.0000   1.00   SP1   
;10
s394   LO   17B8   0.28470   100   37.35   5.0000   1.00   SP1   
;10
s395   LO   17B8   0.00180   100   2.97   5.0000   1.00   SP1   
;10
s396   LO   17B8   0.01500   100   8.57   5.0000   1.00   SP1   
;10
s397   LO   17B8   0.01840   100   9.50   5.0000   1.00   SP1   
;10
s398   LO   17B8   0.00460   100   4.75   5.0000   1.00   SP1   
;10
s399   LO   17B8   0.00240   100   3.43   5.0000   1.00   SP1   
;10
s400   LO   17B11   0.00010   100   0.70   5.0000   1.00   SP1   
;10
s401   LO   17B11   0.08750   100   20.71   5.0000   1.00   SP1   
;10
s402   LO   17B11   0.06980   100   18.49   5.0000   1.00   SP1   
;10