# database: cwm1.dat
# author: Johannes Boog
# 21.08.2019


# this database is a simplifyied version of the data base provided
# in Boog et al. (2019)
#
# Boog, J., Kalbacher, T., Forquet, N., van Afferden, M., Mueller, R., A. 2019.
# Modeling the relationship of aeration, oxygen transfer and treatment performance
# in aerated horizontal flow treatment wetlands. Water Research. 157. 321-334.


SOLUTION_MASTER_SPECIES
#
#  elemen     species        alk   gfw_formula element_gfw atomic
#                                                          number
E       e-             0.0     0.0             0.0
H       H+             -1.0    H               1.008
H(0)    H2             0       H
H(1)    H+             -1.0    0
O       H2O            0       O               16.0
O(-2)   H2O            0       0
O(0)    O2             0       O
#cwm1 data
Ogas Ogas       0       1       1
Do    Do        0       1       1
Sf      Sf      0       1       1
Sa      Sa      0       1       1
Sin     Sin     0       1       1
Snh     Snh     0       1       1
Sno     Sno     0       1       1
Sulphide Sulphide 0     1       1
Sso     Sso     0       1       1
Xs_m    Xs_m    0       1       1
Xs_im   Xs_im   0       1       1
Xi_m    Xi_m    0       1       1
Xi_im   Xi_im   0       1       1
Xh      Xh      0       1       1
Xa      Xa      0       1       1
Xfb     Xfb     0       1       1
Xamb    Xamb    0       1       1
Xasrb   Xasrb   0       1       1
Xsob    Xsob    0       1       1
Tracer  Tracer  0       1       1
Snh_im  Snh_im  0       1       1


SOLUTION_SPECIES

### Primary Master Species
e- =  e-
    -log_k 0

H+ = H+
    -log_k 0

H2O =  H2O
    -log_k   0

Ogas = Ogas
    log_k     0
Do = Do
    log_k     0
Sf = Sf
    log_k     0
Sa = Sa
    log_k     0
Sin = Sin
    log_k     0
Snh = Snh
    log_k     0
Sno = Sno
    log_k     0
Sulphide = Sulphide
    log_k     0
Sso = Sso
    log_k     0
Xs_m = Xs_m
    log_k       0
Xs_im = Xs_im
    log_k       0
Xi_m = Xi_m
    log_k       0
Xi_im = Xi_im
    log_k       0
Xh = Xh
    log_k     0
Xa = Xa
    log_k     0
Xfb = Xfb
    log_k     0
Xamb = Xamb
    log_k     0
Xasrb = Xasrb
    log_k     0
Xsob = Xsob
    log_k     0
Tracer = Tracer
    log_k     0
Snh_im = Snh_im
    log_k     0

### Secondary Master Species

2 H+ + 2 e- = H2
    -log_k -3.15

2 H2O - 4 H+ - 4 e- = O2
    -log_k -86.08

### Aquaeous Species

H2O - H+ =  OH-
    -log_k -13.9951


CALCULATE_VALUES

#=== Aeration ================================================================
#
So_sat                                          # saturated dissolved oxygen concentration as f(T,p)
-start
1 REM ln(DO) = A1 + A2*100/T + A3*ln(T/100) + A4*T/100 + S*[B1 + B2*T/100 + B3*(T/100)2] (Weiss, 1970)

10 A1 = -173.4292
11 A2 = 249.6339
12 A3 = 143.3483
13 A4 = -21.8492
14 B1 = -0.033096
15 B2 = 0.014259
16 B3 = -0.001700
17 p_air = 101325
18 S = 2.95              # g/kg converted from 1500µS/cm at 20°C

20 value = A1 + A2*100/TK + A3*LOG(TK/100) + A4*TK/100 + S*(B1 + B2*TK/100 + B3*(TK/100)^2)
22 value = EXP(value) * 0.55130 * ((760*p_air/101325)/TK) * 1/1000

30 SAVE value
-end

#
kLa_theta                                                                       # Temperature correction for kLa
-start
1 REM kLa(T) = kLa(20°C) * 1.024^(T-20°C)       (Tchobanoglous, 2003)
10 value = 1.024^(TC - 20)
11      SAVE value
-end

# Kinetic parameters
#===================


#=== Biomass Growth limitation (Samso 2013) ==================================
#
bac_growth_limit
-start
1 Xh    = MOL("Xh") * GFW("Xh") / SOLN_VOL
2 Xfb   = MOL("Xfb") * GFW("Xfb") / SOLN_VOL
3 Xamb  = MOL("Xamb") * GFW("Xamb") / SOLN_VOL
4 Xa    = MOL("Xa") * GFW("Xa") / SOLN_VOL
5 Xasrb = MOL("Xasrb") * GFW("Xasrb") / SOLN_VOL
6 Xsob  = MOL("Xsob") * GFW("Xsob") / SOLN_VOL

10 M_bio_max = 10.0   # biomass concentration limit in gCOD/L

110 value = 1 - (Xh + Xfb + Xamb + Xa + Xasrb + Xsob) / M_bio_max

120 SAVE value
-end



#=============================================================================
#=== CWM1 Langergraber (2009) ================================================
#=============================================================================

#=== Hydrolysis ==============================================================
#
Kh                                                                      # Hydrolysis rate constant
-start
# literature values
1 value_20 = 3 / (24*3600)                              # at 20°C in 1/s
2 value_10 = 2 / (24*3600)                              # at 10 °C in 1/s

# correct to current temperature
3 k20=value_20
4 k1=value_20
5 k2=value_10
6 T1=20                                                         # temp in °C
7 T2=10                                                         # temp in °C
8 theta = LOG(k1/k2)/(T1-T2)            # Henze (2000)
9 value_T=k20*EXP(theta*(TC-20))                # Henze (2000)

10      SAVE value_T
-end
#
Kx                                                                      # Saturation/ Inhibition coefficient for hydrolysis
-start
# literature values
1 value_20 = 0.1                                                                                # at 20°C in g CODsf/ gCODbm
2 value_10 = 0.22                                                                               # at 10 °C in g CODsf/ gCODbm

# correct to current temperature
3 k20=value_20
4 k1=value_20
5 k2=value_10
6 T1=20                                                         # temp in °C
7 T2=10                                                         # temp in °C
8 theta = LOG(k1/k2)/(T1-T2)            # Henze (2000)
9 value_T=k20*EXP(theta*(TC-20))                # Henze (2000)

10      SAVE value_T
-end
#
#
eta_h                                                           # Correction factor for hydrolysis by Xfb
-start
1       value = 0.1                                             #
3       SAVE value
-end
#
#
#=== Heterotrophic Bacteria Xh ==================================================
muh                                                                     # Max aerobic growth rate on Sf and Sa
-start
# literature values
1 value_20 = 6 /(24*3600)                                                               # 1/d -> 1/s
2 value_10 = 3 /(24*3600)                                                               # 1/d -> 1/s

# correct to current temperature
3 k20=value_20
4 k1=value_20
5 k2=value_10
6 T1=20                                                         # temp in °C
7 T2=10                                                         # temp in °C
8 theta = LOG(k1/k2)/(T1-T2)            # Henze (2000)
9 value_T=k20*EXP(theta*(TC-20))                # Henze (2000)

10      SAVE value_T
-end
#
bh                                                                      # Rate constant for lysis of Xh
-start
# literature values
1 value_20 = 0.4 /(24*3600)                                                             # 1/d -> 1/s
2 value_10 = 0.2 /(24*3600)                                                             # 1/d -> 1/s

# correct to current temperature
3 k20=value_20
4 k1=value_20
5 k2=value_10
6 T1=20                                                         # temp in °C
7 T2=10                                                         # temp in °C
8 theta = LOG(k1/k2)/(T1-T2)            # Henze (2000)
9 value_T=k20*EXP(theta*(TC-20))                # Henze (2000)

10      SAVE value_T
-end
#
eta_g                                                           # Correction factor for denitrification by heterotrophs
-start
1       value = 0.8                                             #
10      SAVE value
-end
#
Koh                                                                     # Saturation/ inhibition coefficient for So
-start
1       value = 0.2                                             # mg 02/L
2       value = value / 1000                    # convert to g O2/L
10      SAVE value
-end
#
Ksf                                                                     # Saturation/ inhibition coefficient for Sf
-start
1       value = 2                                               # mg CODsf/L
2       value = value / 1000                    # convert to g O2/L
10      SAVE value
-end
#
Ksa                                                                             # Saturation/ inhibition coefficient for Sa
-start
1       value = 4                                                       # mg CODsa/L
2       value = value / 1000                            # convert to g CODsa/L
10      SAVE value
-end
#
Knhh                                                                    # Saturation/ inhibition coefficient for Snh
-start
1       value = 0.05                                            # mg N /L
2       value = value / 1000                            # convert to g N/L
10      SAVE value
-end
#
Knoh                                                                    # Saturation/ inhibition coefficient for Sno
-start
1       value = 0.5                                             # mg N /L
2       value = value / 1000                            # convert to g N/L
10      SAVE value
-end
#
Kh2s_h                                                                  # Saturation/ inhibition coefficient for Sulphide
-start
1       value = 140                                             # mg S /L
2       value = value / 1000                            # convert to g S /L
10      SAVE value
-end
#
#
#=== Autotrophic Bacteria Xa ==================================================
mu_a                                                                    # Max aerobic growth rate on Snh
-start
# literature values
1 value_20 = 1 /(24*3600)                                                               # 1/d -> 1/s
2 value_10 = 0.35 /(24*3600)                                                    # 1/d -> 1/s

# correct to current temperature
3 k20=value_20
4 k1=value_20
5 k2=value_10
6 T1=20                                                         # temp in °C
7 T2=10                                                         # temp in °C
8 theta = LOG(k1/k2)/(T1-T2)            # Henze (2000)
9 value_T=k20*EXP(theta*(TC-20))                # Henze (2000)

10      SAVE value_T
-end
#
ba                                                                              # Rate constant for lysis of Xa
-start
# literature values
1 value_20 = 0.15 /(24*3600)                                                            # 1/d -> 1/s
2 value_10 = 0.05 /(24*3600)                                                    # 1/d -> 1/s

# correct to current temperature
3 k20=value_20
4 k1=value_20
5 k2=value_10
6 T1=20                                                         # temp in °C
7 T2=10                                                         # temp in °C
8 theta = LOG(k1/k2)/(T1-T2)            # Henze (2000)
9 value_T=k20*EXP(theta*(TC-20))                # Henze (2000)

10      SAVE value_T
-end
#
Koa                                                                             # Saturation/ inhibition coefficient for So
-start
1       value = 1.0                                                     # mg 02/L
2       value = value / 1000                            # convert to g O2/L
10      SAVE value
-end
#
Knha                                                                    # Saturation/ inhibition coefficient for Snh
-start
# literature values
1 value_20 = 0.5 / 1000                                                                 # mg N /L -> g N/L
2 value_10 = 5   / 1000                                                                 # mg N /L -> g N/L

# correct to current temperature
3 k20=value_20
4 k1=value_20
5 k2=value_10
6 T1=20                                                         # temp in °C
7 T2=10                                                         # temp in °C
8 theta = LOG(k1/k2)/(T1-T2)            # Henze (2000)
9 value_T=k20*EXP(theta*(TC-20))                # Henze (2000)

10      SAVE value_T
-end
#
Kh2s_a                                                                  # Saturation/ inhibition coefficient for Sulphide
-start
1       value = 140                                             # mg S /L
2       value = value / 1000                            # convert to g S /L
10      SAVE value
-end
#
#
#=== Fermenting Bacteria Xfb ==================================================
mu_fb                                                                   # Max growth rate on Sf
-start
# literature values
1 value_20 = 3 /(24*3600)                                                       # 1/d -> 1/s
2 value_10 = 1.5 /(24*3600)                                                     # 1/d -> 1/s

# correct to current temperature
3 k20=value_20
4 k1=value_20
5 k2=value_10
6 T1=20                                                         # temp in °C
7 T2=10                                                         # temp in °C
8 theta = LOG(k1/k2)/(T1-T2)            # Henze (2000)
9 value_T=k20*EXP(theta*(TC-20))                # Henze (2000)

10      SAVE value_T
-end
#
b_fb                                                                    # Rate constant for lysis of Xfb
-start
1       value = 0.02                                            # 1/d
2       value = value /(24*3600)                        # convert to 1/s
10      SAVE value
-end
#
Kofb                                                                    # Saturation/ inhibition coefficient for So
-start
1       value = 0.2                                                     # mg 02/L
2       value = value / 1000                            # convert to g O2/L
10      SAVE value
-end
#
Ksfb                                                                    # Saturation/ inhibition coefficient for Sf
-start
1       value = 28                                                      # mg CODsf /L
2       value = value / 1000                            # convert to g N/L
10      SAVE value
-end
#
Knofb                                                                   # Saturation/ inhibition coefficient for Sno
-start
1       value = 0.5                                             # mg N /L
2       value = value / 1000                            # convert to g N/L
10      SAVE value
-end
#
Knhfb                                                                   # Saturation/ inhibition coefficient for Snh
-start
1       value = 0.01                                            # mg N /L
2       value = value / 1000                            # convert to g N/L
10      SAVE value
-end
#
Kh2s_fb                                                                 # Saturation/ inhibition coefficient for Sulphide
-start
1       value = 140                                             # mg S /L
2       value = value / 1000                            # convert to g S /L
10      SAVE value
-end
#
#
#=== Acetotrohpic Methanogenic Bacteria Xamb =====================================
mu_amb                                                                  # Max growth rate on Sa
-start
# literature values
1 value_20 = 0.085 /(24*3600)                                                   # 1/d -> 1/s
2 value_10 = 0.04 /(24*3600)                                                    # 1/d -> 1/s

# correct to current temperature
3 k20=value_20
4 k1=value_20
5 k2=value_10
6 T1=20                                                                 # temp in °C
7 T2=10                                                                 # temp in °C
8 theta = LOG(k1/k2)/(T1-T2)                    # Henze (2000)
9 value_T=k20*EXP(theta*(TC-20))                # Henze (2000)

10      SAVE value_T
-end
#
#
b_amb                                                                   # Rate constant for lysis of Xamb
-start
# literature values
1 value_20 = 0.008 /(24*3600)                                                   # 1/d -> 1/s
2 value_10 = 0.004 /(24*3600)                                                   # 1/d -> 1/s

# correct to current temperature
3 k20=value_20
4 k1=value_20
5 k2=value_10
6 T1=20                                                                 # temp in °C
7 T2=10                                                                 # temp in °C
8 theta = LOG(k1/k2)/(T1-T2)                    # Henze (2000)
9 value_T=k20*EXP(theta*(TC-20))                # Henze (2000)

10      SAVE value_T
-end
#
#
Koamb                                                                   # Saturation/ inhibition coefficient for So
-start
1       value = 0.0002                                          # mg 02/L
2       value = value / 1000                            # convert to g O2/L
10      SAVE value
-end
#
Ksamb                                                                   # Saturation/ inhibition coefficient for Sf
-start
1       value = 56                                                      # mg CODsf /L
2       value = value / 1000                            # convert to g N/L
10      SAVE value
-end
#
Knoamb                                                                  # Saturation/ inhibition coefficient for Sno
-start
1       value = 0.0005                                          # mg N /L
2       value = value / 1000                            # convert to g N/L
10      SAVE value
-end
#
Knhamb                                                                  # Saturation/ inhibition coefficient for Snh
-start
1       value = 0.01                                            # mg N /L
2       value = value / 1000                            # convert to g N/L
10      SAVE value
-end
#
Kh2s_amb                                                                # Saturation/ inhibition coefficient for Sulphide
-start
1       value = 140                                             # mg S /L
2       value = value / 1000                            # convert to g S /L
10      SAVE value
-end
#
#
#=== Acetotrohpic sulphate reducing bacteria Xarsb =====================================
mu_asrb                                                                 # Max growth rate on Sso4
-start
1       value = 0.18                                            # 1/d
2       value = value /(24*3600)                        # convert to 1/s
10      SAVE value
-end
#
b_asrb                                                                  # Rate constant for lysis of Xasrb
-start
1       value = 0.012                                           # 1/d
2       value = value /(24*3600)                        # convert to 1/s
10      SAVE value
-end
#
Ko_asrb                                                                 # Saturation/ inhibition coefficient for So
-start
1       value = 0.0002                                          # mg 02/L
2       value = value / 1000                    # convert to g O2/L
10      SAVE value
-end
#
Ks_asrb                                                                 # Saturation/ inhibition coefficient for Sf
-start
1       value = 24                                              # mg CODsf /L
2       value = value / 1000                    # convert to g N/L
10      SAVE value
-end
#
Kno_asrb                                                                        # Saturation/ inhibition coefficient for Sno
-start
1       value = 0.0005                                          # mg N /L
2       value = value / 1000                    # convert to g N/L
10      SAVE value
-end
#
Knh_asrb                                                                        # Saturation/ inhibition coefficient for Snh
-start
1       value = 0.01                                            # mg N /L
2       value = value / 1000                    # convert to g N/L
10      SAVE value
-end
#
Kso_asrb                                                                        # Saturation/ inhibition coefficient for Sso4
-start
1       value = 19.0                                            # mg S /L
2       value = value / 1000                    # convert to g S /L
10      SAVE value
-end
#
#
Kh2s_asrb                                                                       # Saturation/ inhibition coefficient for Sulphide
-start
1       value = 140                                             # mg S /L
2       value = value / 1000                    # convert to g S /L
10      SAVE value
-end
#
#
#=== Sulphide oxidizing bacteria Xsob =====================================
#
mu_sob                                                                  # Max growth rate on Sulphide
-start
1       value = 5.28                                            # 1/d
2       value = value /(24*3600)                        # convert to 1/s
10      SAVE value
-end
#
b_sob                                                                   # Rate constant for lysis of Xsob
-start
1       value = 0.15                                            # 1/d
2       value = value /(24*3600)                        # convert to 1/s
10      SAVE value
-end
#
eta_sob                                                                 # Correction factor for anoxic growth of Xsob
-start
1value = 0.8
10      SAVE value
-end
#
Ko_sob                                                                  # Saturation/ inhibition coefficient for So
-start
1       value = 0.2                                                     # mg 02/L
2       value = value / 1000                            # convert to g O2/L
10      SAVE value
-end
#
Kno_sob                                                                 # Saturation/ inhibition coefficient for Sno
-start
1       value = 0.5                                                     # mg N /L
2       value = value / 1000                            # convert to g N/L
10      SAVE value
-end
#
Knh_sob                                                                 # Saturation/ inhibition coefficient for Snh
-start
1       value = 0.05                                            # mg N /L
2       value = value / 1000                            # convert to g N/L
10      SAVE value
-end
#
Kh2s_sob                                                                        # Saturation/ inhibition coefficient for Sulphide
-start
1       value = 0.24                                            # mg S /L
2       value = value / 1000                            # convert to g S /L
10      SAVE value
-end
#

#=============================================================================

END
